Circuit: * D:\Electronics\Projects\Traffic Lights\Trafic Lights Simulation\Draft1.asc

Direct Newton iteration for .op point succeeded.

Date: Sun Dec 16 18:41:29 2018
Total elapsed time: 0.120 seconds.

tnom = 27
temp = 27
method = modified trap
totiter = 14728
traniter = 14723
tranpoints = 3672
accept = 3042
rejected = 630
matrix size = 14
fillins = 0
solver = Normal
Matrix Compiler1: 384 bytes object code size  0.1/0.1/[0.1]
Matrix Compiler2: 776 bytes object code size  0.1/0.1/[0.1]

